600
    cell: 20 20 20
O 9.523971168780 0.7229888630440 -1.769953962770
H 8.547697896160 0.9257365943840 -1.693902305250
H 9.987729388000 0.9959388545660 -0.9270858733070
O 8.338432601820 -5.114176254190 -9.164582639970
H 7.456306411290 -5.168118523060 -8.696668528610
H 8.499554467530 -5.961375671220 -9.670836422340
O 6.595802407310 -0.6420797686180 -5.703543258550
H 6.108832562270 0.1548847590690 -6.060905695910
H 6.096836062830 -1.014254770370 -4.920907739840
O -9.570403377220 0.004120927572510 -4.389303814670
H -8.573890962400 -0.006705449839440 -4.472043144270
H -9.824410679760 0.2370816119430 -3.450576159920
O -5.548122493690 6.020640235340 4.303695544540
H -6.158503091030 5.539972487190 3.674097226340
H -4.685016904760 5.521073697920 4.377736188990
O -7.260808847340 -2.935721818000 -8.093406189690
H -8.243944751390 -3.109072143930 -8.035152789240
H -6.767412759940 -3.805353317240 -8.076046567320
O -5.964292462310 3.105576095890 1.403035211250
H -5.628092525610 2.181134766270 1.582973619170
H -6.374803037110 3.139472387710 0.4918096028680
O 4.366156960410 0.8197316005700 9.040431303380
H 3.901865416970 1.220669979480 9.830166562190
H 3.721889307390 0.7407052132300 8.279725038530
O 5.503354277280 1.892130149130 -6.586119923460
H 5.570913522290 2.587390302010 -5.870543884020
H 6.158757458550 2.097186813780 -7.313030120300
O 7.473115743580 -2.915225581610 9.233466199600
H 7.510708612270 -2.368317919590 -9.930185317150
H 7.926605642300 -3.792902666630 9.388481831710
O -7.708475642290 4.442745733560 2.907651099910
H -7.008721211740 3.956374019660 2.384405179870
H -8.615086287760 4.170803145460 2.584999017490
O 7.299898173880 -7.579965201710 9.853765739870
H 6.641765191890 -7.367857657960 9.131359089910
H 7.804077544720 -8.409143137180 9.612379921430
O -8.174780866590 6.659343039420 0.9090656531490
H -7.945986749620 7.603697973140 1.145385375560
H -7.937307303460 6.057956481760 1.671915910460
O 9.097076874970 5.796689769790 0.7573319385230
H -9.974681136910 6.141257894380 0.6171905135280
H 9.138314178690 4.878589042740 1.151528006200
O 9.859699766830 3.953522630990 -8.403500956330
H 9.651279107440 4.484219974350 -7.581965102890
H -9.274797711580 3.468953420710 -8.276622803880
O 9.707559422430 3.482952732720 1.826457866470
H -9.871979078230 2.860623090940 1.166217043340
H 8.965644290390 3.011494619000 2.303206420580
O -9.116889322280 -7.444299413950 8.822114753050
H -8.514173037410 -7.123966503690 9.552949827860
H -9.770512061470 -8.103451567270 9.193996123350
O 8.250200853020 -0.8679424607960 -9.150082587000
H 8.217412034400 -0.06373945869930 -8.556632989490
H 8.644094686900 -1.637382198900 -8.647280302750
O 8.994693990930 -9.569735434100 9.154862106230
H 8.965546648560 9.946180900530 8.280325979280
H 9.655913057580 9.986395946080 9.759651320960
O -9.797225381940 -2.582102149870 -4.775891590520
H -9.955548003430 -1.596557859700 -4.715589023090
H -9.526505938990 -2.931695591540 -3.878954910070
O 4.718700053700 -1.946156019710 8.655652128250
H 5.651108764840 -2.292343194830 8.759423199140
H 4.679128989220 -0.9966377851640 8.966858254680
O 3.416578401100 1.273952902080 -8.423375543620
H 2.535354214770 1.248953244740 -7.951338521170
H 4.141265564030 1.479644778490 -7.765713496780
O -9.029928816320 1.332863928150 0.4090475048930
H -8.547909576870 0.4695124633850 0.5583180682640
H -8.473355026900 1.929762178610 -0.1688262663850
O 6.551246993380 -7.457401556100 -6.975664796420
H 7.026697219270 -7.856620525540 -7.759610774880
H 6.467022120080 -6.469348870990 -7.104730911880
O -8.510692208880 -1.253129604650 2.228091099070
H -7.992533459430 -1.806901082190 2.879895257560
H -9.022585113770 -0.5497404211330 2.721253658920
O -9.990859065730 5.102582062990 8.936262541530
H -9.076694120410 5.456595535320 8.738836823470
H 9.894334300920 5.009048884910 9.925237253810
O 5.738622857560 -7.007825824820 7.439256317000
H 5.888167607280 -7.415872116140 6.538626208700
H 5.758027399030 -6.011083334900 7.360975587880
O 8.950629444310 3.026075482550 7.336585902430
H 8.405733632040 2.340564726360 7.819456026720
H 9.231336935760 3.740582367880 7.977431605430
O -9.172584189250 -3.342813958270 -2.086587582670
H -9.824543289030 -3.842523380380 -1.516289567880
H -8.761332743120 -2.603634243610 -1.553215669750
O 3.334364183420 -2.770962568950 6.379803236240
H 3.550686164160 -2.246013398010 7.202988008070
H 3.809946675250 -3.650096276480 6.410547629940
O 1.076387662520 -2.320742929310 4.395861821480
H 1.788310654320 -2.577750503760 5.049400466420
H 1.345013331890 -1.481376838730 3.923310431960
O 5.705573513550 -2.838495251260 1.655081875980
H 6.346916427900 -3.576238474380 1.444335101510
H 5.105663462580 -2.683967301320 0.8700793005530
O 8.826348839200 4.298946883760 -5.990990146700
H 7.898584575990 4.664344832230 -6.066738487700
H 8.788571752300 3.363927057080 -5.638412757440
O 8.029277883390 -2.674365544760 -6.380762658480
H 8.725327396520 -2.712569627980 -5.663786003840
H 7.392209568150 -1.928201091120 -6.187416932260
O -2.820392397950 -3.852489964290 -8.161986117760
H -2.851562589050 -3.406850768110 -9.056655959660
H -3.517601951040 -3.453510318180 -7.566407339530
O -5.864255079840 -1.003011729080 -6.668326036470
H -5.269405224600 -0.4331469024500 -7.235254364480
H -6.426082758760 -1.585670547390 -7.255572458870
O -0.5062713780830 -2.963795069590 -6.998755860740
H -1.367720489020 -3.048605796030 -7.499467923650
H 0.2203445947540 -2.691112611450 -7.629369454820
O 9.524533507120 8.975565339710 6.799103423510
H 9.387555422660 9.254859654530 5.848718401490
H 9.005759090920 8.139790560710 6.978974554850
O -6.269129973120 -2.681801619440 9.187807716790
H -6.789115384260 -3.355684972000 8.662930207890
H -6.732360430710 -2.506362420470 -9.943492892960
O 3.250922546310 -3.573038651590 -9.607019916390
H 3.806149573960 -3.087121513810 9.717993059310
H 2.973025967180 -4.458579925470 -9.979296887960
O 0.9109548532610 0.3028308462560 -7.446961051100
H 0.8586287290190 -0.6277662837980 -7.809246792270
H 0.06014657287720 0.5231145096490 -6.969886237610
O 8.358004865990 6.372210401840 7.189916533880
H 9.106362377040 6.042675481960 7.765562060420
H 8.056424973050 5.637441371800 6.582327823760
O 2.885941024960 -1.095288579990 -5.870829512530
H 3.310468806360 -0.2872452435510 -6.279292643370
H 1.976732342130 -0.8573885451390 -5.529152553280
O -2.972033883100 -5.430541681470 2.866295526200
H -3.952603763260 -5.333251576130 3.036640310440
H -2.623454373300 -6.222089154960 3.368236680680
O 1.029969335480 -4.098408567870 -3.705674134090
H 1.730196809610 -4.651534330790 -4.157042470230
H 0.1273003873440 -4.486061285650 -3.892527393250
O 1.187350329880 -2.078940851050 -8.818689286520
H 2.019128445600 -2.530439451540 -9.141635381050
H 0.7988994380900 -1.528005732990 -9.557320723950
O -5.429415170440 7.588111190040 6.403037573130
H -6.285591406300 8.032758174580 6.666194013830
H -5.621659025540 6.853271248310 5.752612665690
O 6.112860392440 -4.679878057570 -7.385683656180
H 5.187046273770 -4.326325679710 -7.519358387460
H 6.720721480890 -3.931036510480 -7.121597998680
O -1.256001307300 3.891261437810 1.412174101820
H -1.074627875050 3.192340472860 0.7203553662900
H -0.4087116839900 4.378295420500 1.624066041110
O 1.552040756080 0.8166677230830 4.699198349130
H 1.191944029150 1.748550554210 4.655326532450
H 2.432640437800 0.7770398844030 4.226997295600
O 1.675406933750 -3.453557252470 -1.193509726950
H 1.449470771120 -4.206078556280 -0.5749108765430
H 1.393998989100 -3.690523868840 -2.123378745370
O 1.248846365510 0.3402528384420 -3.056335302310
H 0.7419318674490 0.06874735302660 -3.874456603250
H 1.056156348590 -0.3036098715770 -2.315854804240
O 0.2144511858830 -1.548106225330 -4.824420688410
H -0.2019298534230 -1.832859635190 -5.687868617170
H 0.9092659432100 -2.214404501810 -4.553719636020
O 1.140795828750 -0.6981044637700 -0.4564857085000
H 1.751360232410 -0.2342138110350 0.1853994613620
H 1.451932259040 -1.638774303450 -0.5918901931760
O -1.549149552520 -7.968623187260 8.913694971790
H -1.984408399760 -7.643555826970 9.753266855060
H -0.7741060702310 -7.377741064830 8.689717477500
O 6.938295803320 4.341822320480 -2.764824679030
H 6.392862118630 4.465168209680 -1.935796400130
H 7.557536702990 5.119236396410 -2.875133621150
O -4.989523212280 0.8651675489310 2.419922083310
H -5.239915192710 0.7221144760590 3.377439537180
H -3.996016817520 0.9501999746440 2.344327571970
O -2.381552386430 0.5594365291330 2.261278157590
H -1.777331782470 0.5319556286290 3.057621212970
H -2.184259127780 -0.2195958924620 1.666144679960
O -2.644579930620 0.7531552095740 -3.810161289760
H -2.354763144190 -0.1918269551180 -3.658454537380
H -3.226742274220 1.048918612870 -3.052790168730
O -1.809087816040 -1.659627589810 -2.942709166450
H -1.006316441080 -1.615532821550 -3.537363495430
H -2.424711213370 -2.378055087010 -3.266545180400
O -3.407247325160 2.736541636540 5.607112994740
H -3.189834174490 1.760481689840 5.613318021970
H -3.616936011750 3.025384409920 4.672982111520
O 4.268532499210 0.6725795048950 0.2940773833350
H 5.266701303500 0.7240240715730 0.3258971054390
H 3.944082551450 1.030343913100 -0.5815577345200
O -6.845434188510 -0.4925439822350 -4.149137712020
H -6.621468705640 -0.5813757440060 -5.119677963930
H -6.637769147480 -1.350500070600 -3.679258385830
O -9.270583721940 -8.028348682110 -4.615221329270
H -9.501359675350 -8.897585748600 -5.052450538690
H -8.546380542740 -7.575551837550 -5.135322062590
O -7.058059264320 3.050165922080 -0.9689975554750
H -6.443534723510 2.600017003380 -1.616859840020
H -7.478871144140 3.845107372190 -1.406016379670
O -3.618979528290 -3.102023455100 9.166774551060
H -3.660733863600 -3.903642971250 8.570399898000
H -4.513811628410 -2.656176031650 9.189036347720
O 0.9713858554500 -5.367788012570 1.043827828290
H 0.1204507721110 -5.590512647720 0.5681144473130
H 0.7856140073670 -5.243296943080 2.018502540220
O -3.911638404920 0.1365441253390 -8.225796937670
H -3.308328865800 -0.3890380157400 -8.825614420720
H -4.278710091490 0.9205911126060 -8.726325357120
O -1.495109067000 -1.231840426840 -0.1841186051300
H -1.699795623850 -1.428323457000 -1.143023101050
H -0.5636744732340 -0.8759234124790 -0.1082722049110
O -1.052773513470 -1.705862444440 6.255314546440
H -1.761273099150 -1.033225042860 6.041802806540
H -0.4713118312440 -1.843459697620 5.453460876480
O 7.186574570480 -9.508648471180 -5.160849458810
H 6.827693101630 -8.860469216620 -5.832465230860
H 7.794708727240 -9.029983666620 -4.527562120980
O 4.452989300890 7.517051915990 -2.302093852410
H 4.484640347880 7.598242218480 -1.305897914860
H 5.301373975710 7.101255362330 -2.629747128750
O 3.718558561710 -5.766574677610 -0.1929057617760
H 3.885722040950 -4.905338871590 -0.6728320661470
H 2.798364515530 -5.756907792970 0.1984373980130
O -6.581133784860 -2.833727373020 -2.771458748700
H -5.862562342640 -3.148098928430 -2.151115611730
H -7.448981293460 -3.262761320340 -2.520918185410
O -7.506607518560 6.533963535850 8.946350823730
H -7.318806343240 7.484926529570 8.700586499350
H -7.001508211110 5.925522091610 8.334244870040
O 5.039874761640 -2.034386472370 -3.701458721600
H 5.156471093380 -3.009820059890 -3.514550691380
H 4.093611105660 -1.857688387380 -3.972314550640
O -3.798480172930 3.844637234230 8.130194555750
H -3.779725480160 4.841461248350 8.052798519820
H -3.385343453040 3.439177227270 7.314768143720
O -2.998705943210 9.568634098880 5.280603540520
H -3.157410123930 -9.708051220870 5.952636914970
H -3.742281957070 8.901592175990 5.326969311480
O 8.872258580250 9.228354991570 -2.542877308430
H 9.211319130530 -9.876443078250 -2.253651708880
H 8.503440272730 8.740161744080 -1.751902966780
O -8.088005335670 7.173104428860 -8.263413069620
H -7.596208878610 6.548488105360 -7.656790705010
H -7.994311780820 6.862001962950 -9.209159744740
O 3.439213508670 -0.004991188879680 2.754176838920
H 3.537610435620 -0.08879860667910 1.762564837430
H 3.964373318050 -0.7277042759770 3.203501853080
O -7.076105472880 -6.585164621540 -9.780788458500
H -6.296510120700 -7.192204235810 -9.934846868110
H -6.894164027920 -6.003662145760 -8.987849506700
O 5.294351435070 -1.600448931420 4.427846332180
H 5.479220382690 -2.342883694490 3.783940986030
H 4.533764479880 -1.857829703420 5.023885443150
O 0.3427825504470 -6.315265508440 7.712936267060
H 0.3117044919050 -7.036706021870 7.021157588690
H -0.3790718705540 -5.647594694300 7.530887156020
O 5.276703913980 -9.981698300880 -3.124582067870
H 5.900832806500 9.892367558260 -3.895687584440
H 4.921350759100 9.129618438380 -2.834812853810
O -4.732179643490 1.703787437450 9.609637452440
H -4.306804155980 2.545346028520 9.276718795060
H -5.536474896250 1.494280376900 9.053565570430
O -3.311147973690 -3.807116146250 -3.831919309410
H -2.573804787580 -4.357794077420 -4.223172222530
H -4.151378793170 -3.956554954590 -4.353148829440
O 7.671339994070 8.388820087370 -0.1111142489000
H 8.089558083950 7.582279459990 0.3067204620530
H 7.647220770670 9.134521676160 0.5547291287320
O -7.827117091580 5.713129652580 -1.621806986520
H -7.779578012460 6.073157045190 -0.6900772443090
H -8.361562209190 6.336112400630 -2.192999521390
O 6.347976534040 5.233002129300 -6.534838343340
H 5.680533937350 5.543401526180 -5.857953866830
H 5.869781667500 4.922176705770 -7.356250070620
O -1.465093497830 -4.358144708820 6.602596339380
H -2.452779854330 -4.511102711400 6.635452246420
H -1.280217411020 -3.375459851530 6.590295779680
O -1.245007385450 -4.878474750130 -5.132860396400
H -0.7219305154170 -5.582906727540 -5.612616769190
H -1.433130946400 -4.120027268540 -5.756853139540
O -8.041806203950 -4.840293593000 8.156820844940
H -7.833042923060 -5.435354323820 8.932914021820
H -8.347343106940 -5.395885055170 7.383538666130
O 3.701589548770 -3.528533529700 -6.958293175310
H 3.591484759200 -3.543717079420 -7.952097177680
H 3.509499228800 -2.608908187020 -6.615670149130
O -7.825557843330 -1.376948606810 -0.4326162790290
H -7.923370505660 -1.720617225810 0.5013668918070
H -6.879113675470 -1.092727973290 -0.5857896076470
O -3.725228391210 3.681010188360 3.083259867130
H -4.537711261410 3.480023886010 2.536015779070
H -2.918822795230 3.689512679080 2.491958148530
O -3.307947140090 -0.1324942861800 5.333955150050
H -3.930931952860 -0.6761682297620 5.896368313240
H -3.028521971690 -0.6656620513610 4.535422928140
O 6.298112795130 -6.677579472200 0.7029206573510
H 5.403362226510 -6.468758724880 0.3081861700780
H 6.762546634810 -5.825758671650 0.9452067120740
O 5.497549039370 -8.058290780890 4.948144938940
H 5.636763436930 -9.019204150540 4.708844191880
H 4.913110264400 -7.625204289510 4.261947147260
O -8.992220112520 7.703970356450 -3.371186147700
H -9.376014131860 7.227854933390 -4.162398037550
H -9.673089880740 8.334965539950 -2.999350919240
O -2.144366756580 -6.638277754040 -8.909977570330
H -2.695827518090 -5.804087794730 -8.914236712640
H -1.364664729430 -6.519264004820 -8.295241467310
O -1.263703343090 7.733914893180 4.058569664210
H -1.832493173170 8.334997371920 4.619976809650
H -1.640452419210 7.686944259400 3.133445946430
O -7.637234069820 9.088668683040 7.168991888360
H -8.609346106550 8.965440803750 6.969459741040
H -7.530329109700 9.754404763690 7.907481428180
O 7.050373968880 1.212375342180 8.845329524160
H 6.086805172120 1.078477133100 9.076860177700
H 7.411437646510 0.3791714920060 8.426516481440
O -5.442623711020 8.852681197760 3.040269902980
H -5.513900420200 7.961815764020 3.488910527190
H -4.619357665760 8.875313837480 2.473065546210
O 4.675485769440 -7.459533865730 -4.882694346560
H 4.719134086860 -8.392453454210 -4.525264820900
H 5.303154228700 -7.369128909540 -5.655907932280
O -9.841267840540 -3.151586454100 -8.179477146670
H 9.879647000860 -2.629144614340 -7.373768763740
H 9.537024832770 -3.924308474320 -8.307464174930
O 6.879946904840 -9.648143254760 1.861022586400
H 6.122758475550 -9.961029213230 2.434405581910
H 6.585660883950 -8.859209184450 1.321598105480
O 5.112846324920 -4.795249095280 -3.434727465500
H 4.383695531610 -5.373475558530 -3.800778387940
H 5.980673719320 -5.290866523300 -3.469926592700
O 2.793032284920 -5.530729098740 -5.389006259560
H 3.503166375190 -6.234555450550 -5.370620386230
H 2.996828661070 -4.870414897370 -6.111814804430
O 9.219510964350 9.184592602080 3.668148495140
H 8.334979126310 8.793958287070 3.413181321920
H 9.947899115450 8.712868684900 3.171230748130
O -9.447751060080 -2.407063371560 8.579900516990
H -9.953097054180 -2.215088950770 9.421191933810
H -9.276385302060 -3.389852067960 8.510906638870
O -8.509254529940 -6.913285619560 6.077520169790
H -8.760554291510 -7.180697684990 7.007756278040
H -8.920063353170 -7.550185278850 5.425143794720
O -5.432011662700 -1.391251538030 6.866612196960
H -6.052005492770 -0.6225944818340 6.709214672720
H -5.604901498450 -1.778928138520 7.772049084950
O 8.489963837940 1.574871794140 -5.666221018190
H 8.295474768460 1.422226241800 -6.635175783500
H 9.194408564170 0.9333510239140 -5.362562115730
O 7.854740265490 -4.574430307090 1.262301985360
H 8.382365301060 -3.800606816980 0.9118607948850
H 8.445584479570 -5.153727076970 1.823834145710
O 7.714217491610 2.035934507860 -8.580847753280
H 8.274201147600 2.864435866490 -8.578897424280
H 7.589102536860 1.720405300550 -9.521479225980
O -3.466245930660 -8.452616505760 6.899542048160
H -4.338808606190 -7.964418199370 6.882314427620
H -2.847623609880 -8.006855640660 7.546537933290
O 0.5064793316900 -6.881875630050 -6.021959961950
H 0.6972553210200 -6.533430125560 -6.939669203650
H 1.184535166660 -6.521911646810 -5.381127522520
O -5.119317065890 -8.179368165410 9.834107089650
H -5.506677271010 -9.070283478830 -9.928781173380
H -4.263680620020 -8.044288902430 -9.666253174920
O -9.234413830320 -8.468161597880 4.218010734510
H -8.328918065460 -8.891279204980 4.185623848430
H -9.934885397650 -9.181392781930 4.243325976180
O 0.1580835045590 -8.205585144380 5.548080232410
H -0.6614418886030 -8.256929461210 4.977342209240
H 0.5449239245430 -9.121039752050 5.658973653100
O 0.2356034840200 5.900783013090 -0.3948877208790
H 0.3962457196160 5.007518243540 -0.8147354594880
H 0.6903877631910 6.609320784730 -0.9344667100750
O -8.354051044300 -8.587440168420 0.1803359792790
H -8.487952353610 -7.742780111180 0.6986214479700
H -8.892532008480 -8.550859090540 -0.6615072816420
O 8.876469260140 -2.457825040670 -0.1623937600910
H 9.553881422010 -1.730261986710 -0.05392825648570
H 8.340802488740 -2.293716785480 -0.9907231574930
O 6.815953177120 -0.4510761594430 0.7454181829900
H 6.472533115140 -1.329186215830 1.078562881130
H 6.633940859050 -0.3721604431690 -0.2347062100320
O 7.917442650120 1.425747164590 2.503549338180
H 7.649074655310 0.6413380189800 1.944370554930
H 7.658339811170 1.260897277140 3.455226927210
O -5.827188427080 -7.246490219360 7.223403523190
H -5.838901047080 -7.521884839200 8.184663434920
H -6.675967634210 -7.538555062000 6.782640565090
O 7.370911952690 0.2242202228080 5.254158200740
H 7.614687032660 -0.3694991429560 6.021016091810
H 6.457119506470 -0.01426036503300 4.925356779750
O -5.408693451650 1.096701307770 -2.438756198510
H -5.947005479280 0.5527691209650 -3.082462604460
H -5.383544011930 0.6351687513280 -1.551989484520
O 1.701377490040 7.713036368640 -1.920800373520
H 1.180340777720 8.152736989950 -2.652363158280
H 2.646475839440 7.579031339310 -2.218846950550
O -6.774718771080 -9.734429935660 4.773949565170
H -6.264403085120 9.782439435660 4.062498445080
H -6.823056953550 9.696063727650 5.594513976170
O -1.432842280370 7.930900383310 0.7415382997080
H -1.280881899830 7.132478072320 0.1589322097530
H -0.6955407854650 8.591584647930 0.6005318881650
O -9.753139246250 6.756121185660 -5.711697767410
H -8.970342644150 6.598665237980 -6.313725262050
H 9.507283703200 6.128804975640 -5.955624311570
O 0.7158931839150 9.512068761030 0.2421903107130
H 1.192944558570 8.949864781130 -0.4333455291410
H 1.351176434620 -9.818324038610 0.6269517804430
O -3.083383272940 9.451659121870 8.888251256240
H -2.221820987710 9.948867101010 8.785807837020
H -3.641570458880 9.579608944600 8.068461095090
O 9.875000286050 1.312532739520 5.359192488720
H 9.570460287380 1.881959206010 6.122742675980
H 9.100724979260 0.7881436247780 5.004913212380
O 9.255504910100 -6.558428496180 2.846549638800
H -9.820128145440 -6.760493055020 3.170147639490
H 8.693896866930 -7.383734188060 2.905430202620
O -9.691298694900 9.412449556320 -8.551936778940
H -9.953863389660 9.785577612900 -7.662085536060
H -9.360396782980 8.475912727530 -8.436166778510
O 8.252042059810 -1.078899146060 7.571495183290
H 7.865352771710 -1.910047210820 7.971075324070
H 9.248376008960 -1.101783642290 7.653926740380
O -7.724117683450 9.244491611170 1.531930006950
H -6.893696936500 9.475469292310 2.038931677420
H -8.000450138070 -9.974804628870 0.9714462750740
O -7.192285846190 0.6617697396870 6.556184047440
H -8.119478241200 0.2915928305580 6.613484296840
H -7.205303880030 1.513780370200 6.032821442450
O 0.7799341516860 5.864522107800 2.368094843700
H 0.05604679617610 6.268487176430 2.927379493820
H 0.5611498674330 5.987534237040 1.400106489940
O -9.969242463210 9.667802318200 -5.787514338310
H -9.667602115220 8.729289982680 -5.619562867540
H 9.057061390930 9.748159443810 -5.574304235550
O -6.893967116300 -2.642421768740 4.081475863110
H -6.803990847140 -2.236683144090 4.991025443650
H -7.050512150700 -3.626176340320 4.169342780050
O 3.944449110350 1.438501923570 -2.173783938170
H 3.107141106030 1.372440167010 -2.716509605720
H 4.671586943090 1.840354345320 -2.730367447930
O -7.772209625670 3.044916836030 5.184404862700
H -8.599578958820 2.483425304290 5.170721064540
H -7.594270317140 3.398718628620 4.266166389290
O -6.483401059590 4.821711199710 7.027530229410
H -5.561082494100 4.438309893380 6.979240457600
H -7.055763580950 4.402981204030 6.322500914510
O 6.010094691240 2.257662674710 -3.763476578510
H 6.694031883990 1.881536783260 -4.388583953410
H 6.416867347890 3.001029519170 -3.232494714080
O -5.582128717290 -3.378874115690 -5.531362728380
H -6.312337784020 -3.612597181860 -4.889359420600
H -5.692755818590 -2.431393512130 -5.831432970740
O 0.1475077834290 -1.131820558030 8.795927526780
H -0.5235629387440 -1.191564723130 8.056945307390
H 0.7770248134450 -0.3763772007190 8.614230958830
O 6.321565691640 -0.03593218519700 -1.874020150260
H 5.649854503820 0.6445206842150 -2.166915989520
H 6.232517592520 -0.8566177227690 -2.438418665900
O 2.109199972310 0.6553173267670 7.289516304320
H 1.820656148880 1.576069752120 7.552113777960
H 1.756127236130 0.4425075964390 6.378444593840
O 1.694981781880 3.480582470100 3.987706344390
H 2.557167807930 3.146252120820 3.607103567160
H 1.394405522010 4.285262766730 3.475706801210
O 2.993648023120 -9.423067276430 1.848410033910
H 3.599377033790 -9.163166083360 1.096383614520
H 2.941763026780 -8.673897409130 2.508752715470
O 4.691894347210 3.043058163900 3.021987153970
H 4.577873120430 2.089244650790 2.744068205270
H 5.609730460050 3.354505899320 2.775862839700
O -5.477310744660 -7.415976199450 3.611329447130
H -5.963230124240 -8.140932423950 4.099510590880
H -4.502514829160 -7.635682989840 3.572575745580
O 4.931004507820 5.748709663970 3.623431082370
H 4.209993918070 6.440657159460 3.586656186670
H 4.529415343630 4.841783206610 3.496110447230
O 7.326629402850 7.082061718240 3.179019790180
H 7.951112615550 6.411961017780 2.777789471900
H 6.480803697830 6.625758974470 3.455365014050
O -1.839341140550 0.9958736528730 -6.418434739700
H -2.602641109840 0.7633876152350 -7.021197876590
H -2.148573980880 0.9795937313820 -5.467587741170
O -3.466060485100 9.834846939650 1.343090590380
H -2.713957563290 9.231012158220 1.079036141930
H -4.160177000390 9.837079693150 0.6232313833080
O -2.481469706340 -8.340073481440 3.490401775510
H -2.849584768020 -9.069681202550 4.066738373910
H -2.621266627520 -8.572934703240 2.527992053920
O 2.506310309740 -5.853046532700 9.089467293390
H 3.118238247370 -6.599760768110 8.828771973540
H 1.791746879360 -5.750648010740 8.397431422460
O -7.178029402820 -5.284820734740 4.402260349370
H -6.450145928770 -5.929550502670 4.168788349870
H -7.894640634460 -5.761316755360 4.911593133540
O 5.345547964600 9.073246887990 3.897757550770
H 4.436413348850 8.799220400750 3.584095734890
H 5.966712933290 8.291484746670 3.842966711580
O 4.551001219910 -9.004727888060 -0.7992201069090
H 4.850283933690 -9.420926494240 -1.657828619240
H 4.585301372570 -8.008738416010 -0.8818546704760
O -2.037316564430 -1.247365510150 -9.527882176850
H -1.157895565240 -0.9271116237080 -9.880098238960
H -2.452794268720 -1.873198946450 9.812033898750
O 4.087340413530 -2.411013313000 -0.3945231438530
H 4.315070192970 -1.492485997030 -0.7177053175390
H 3.234091254110 -2.712152567480 -0.8202942341710
O 0.9376962285120 2.933774218350 6.689366543880
H 0.03456466197140 3.353052625230 6.781881359100
H 1.343285385990 3.205051584170 5.816494258760
O 2.937847355350 7.766100089980 2.786631139550
H 2.808320980040 8.447635894120 2.066400714080
H 2.205747731740 7.086632346360 2.738115920500
O 4.599204280090 8.397445933310 0.1414464327760
H 4.532707073190 9.393063161080 0.07568582731110
H 5.558347363620 8.122359277210 0.07532626229250
O 1.197594730720 9.120361123700 4.976435661160
H 0.4739068063560 8.569164862840 4.561154467090
H 1.984811065340 9.155368006330 4.360753145030
O -9.992530753440 -8.436919027000 -1.937149360200
H -9.558257903120 -8.280847522460 -2.824307055840
H 9.143070357620 -7.935765657410 -1.896407969090
O -3.968484226340 -3.578201426360 -1.269275719340
H -3.125500671830 -3.907761157290 -0.8441062112930
H -3.836055613850 -3.503151946450 -2.257622944840
O -2.932664832170 6.749086670230 7.280287105430
H -2.347445503050 7.385707008490 7.782515023540
H -3.796457608570 7.198802848760 7.053092479140
O -1.818743650920 -4.478790654770 0.1953191072480
H -1.233942679390 -3.670331687630 0.2616660902180
H -2.386006763800 -4.548086226620 1.015935146870
O -5.074246127300 -0.3779022448240 0.05507740563090
H -5.105923703730 0.2197936304050 0.8561742611270
H -4.395702067470 -1.097473781630 0.2027078980310
O 3.684923260300 -6.664318069080 3.208011215500
H 2.743027208450 -6.621170975940 3.541133048860
H 3.751802603280 -6.182743619950 2.334161569730
O -1.353915464050 4.548031233720 6.174312552920
H -1.776614719080 5.269931232440 6.722204633210
H -2.060435254460 3.919582783030 5.848916900550
O 5.533891165370 -4.514375015810 6.549397433350
H 5.892270248070 -3.758405333710 7.097187788170
H 6.097511361140 -4.629786781010 5.731465651730
O 5.667170518860 4.996289929560 -0.3714265347030
H 6.561819422900 5.288826078040 -0.03374926225330
H 4.955083588490 5.309078887520 0.2571395090630
O 0.1127955282270 3.473785185570 -1.660751559080
H -0.7725161592390 3.040047852980 -1.828367615470
H 0.8174827700170 3.012101300230 -2.199512991690
O 7.449903136940 -7.735143070240 -2.079404277500
H 7.038168123930 -7.382371927020 -1.239150268540
H 6.971541553030 -8.566825509720 -2.361316524320
O -3.098292097590 -2.504998378830 3.546372135880
H -3.981911337720 -2.517267143580 3.078326715120
H -2.650744463560 -3.392526880120 3.436853759960
O -7.313993602330 9.821983784920 9.796138534320
H -6.576406374470 9.309713350230 -9.763925012280
H -8.128459776910 9.797792304910 -9.624154968600
O -5.044940622200 8.694852378030 -9.123475975700
H -4.219393177240 8.675628955840 -9.687481185030
H -4.831213527570 9.097415616140 -8.233384088120
O -6.231103890650 -5.280611384750 -7.449796171250
H -6.665074096330 -5.968256275740 -6.867718543720
H -5.878910681350 -4.537037907420 -6.881413881640
O -6.322658441280 7.943136815600 -3.959691709190
H -7.304434208000 7.985885189550 -3.774519031940
H -5.820135333510 7.942160742810 -3.095128482220
O -6.869221617850 5.612317320990 -6.322510021060
H -7.000280412620 4.739038700980 -5.853246721680
H -6.358857280050 6.235717696840 -5.730141711570
O 4.897509775840 4.707341617310 -8.943090868040
H 5.393736681880 5.384946063930 -9.485871736940
H 4.541861184350 3.993063522250 -9.545851917130
O 6.323026546350 6.471745200550 9.203135476580
H 7.235761609540 6.535004677070 8.799510721320
H 5.786824262800 7.274493649530 8.942210125620
O -4.774836325730 -4.731666555750 7.416065568960
H -5.230676100090 -3.841612746720 7.412281769330
H -5.443247634300 -5.449310111670 7.220581428360
O -4.805737167670 -3.413962623780 1.725522255990
H -5.552585228010 -4.030966406770 1.973563193240
H -4.627020526400 -3.484592547690 0.7441600517120
O 0.9695961401100 -5.394871610370 -8.241107328480
H 0.8601420727890 -4.402634381410 -8.300141967720
H 1.223955493490 -5.756109042590 -9.138218713380
O 0.9351685488110 -5.020372290160 3.518352346510
H 0.6446229735210 -5.304474354350 4.432064164210
H 0.9127586915120 -4.022526335610 3.456698074430
O -7.602321360440 -7.634427330520 -6.863570558980
H -7.087865225940 -8.490211682560 -6.809090943820
H -8.012833799800 -7.549521691250 -7.771464038170
O 7.375428541190 -5.149728966490 4.398946755410
H 8.297475241500 -5.315395661840 4.049111896520
H 6.896378501200 -6.021455996430 4.501917841010
O -6.518395824990 9.528321859630 -6.624394360540
H -6.783111967130 8.580785075720 -6.803557434950
H -6.176437416790 9.607503847540 -5.688021219180
O 7.666587880710 4.279193015660 5.278503781610
H 8.171855561940 3.628989346070 5.845901136520
H 6.691657418620 4.221817918880 5.493489112170
O 7.270923484130 7.993636871440 -4.326113470700
H 7.286971911730 8.760174152360 -4.968112726870
H 7.716053947050 8.264370122480 -3.472554815570
