500
Written by the chemfiles library
Ar 23.91 20.54 2.32
Ar 30.23 25.88 30.76
Ar 18.95 23.38 17.65
Ar 24.39 20.29 27.13
Ar 30.16 8.77 6.76
Ar 17.88 1.89 17.35
Ar 12.84 8.07 14.86
Ar 13.36 27.53 14.86
Ar 10.09 22.69 28.29
Ar 15.96 26.56 24.41
Ar 14.92 23.26 6.82
Ar 0.1 17.97 24.87
Ar 19.65 6.88 16.97
Ar 12.51 25.79 8.9
Ar 1.44 29.93 8.95
Ar 26.35 23.94 10.73
Ar 11.19 9.05 26.55
Ar 18.54 10.89 24.5
Ar 27.73 13.45 23.67
Ar 28.83 21.44 1.85
Ar 11.6 13.99 8.29
Ar 2.48 21.72 20.87
Ar 7.89 29.06 4.53
Ar 15.97 22.83 14.37
Ar 6.57 25.96 0.88
Ar 2.17 4.18 4.69
Ar 22.91 1.42 5.89
Ar 6.61 22.9 13.16
Ar 29.28 23.36 5.15
Ar 22.25 22.29 28.52
Ar 9.28 27.69 26.26
Ar 4.09 19.5 20.89
Ar 15.05 13.2 17.35
Ar 26.78 8.97 18.27
Ar 11.73 2.95 15.77
Ar 21.43 12.3 8.79
Ar 18.36 25 21.55
Ar 13.06 26.53 12.08
Ar 23.32 0.84 11.76
Ar 21.5 30.26 9.23
Ar 11.09 18.09 6.29
Ar 25.4 11.09 15.91
Ar 30.08 24.94 28.34
Ar 8.2 18.38 15.52
Ar 15.12 19.71 23.25
Ar 14.15 12.92 27.39
Ar 27.82 7.65 21.67
Ar 22.61 20.33 22.06
Ar 19.42 14.72 10
Ar 16.67 5.36 15.91
Ar 8.57 21.56 4.44
Ar 30.89 26.83 7.73
Ar 8.65 15.92 14.07
Ar 23.36 9.11 16.08
Ar 8.25 23.44 15.23
Ar 8.24 22.84 26.6
Ar 6.75 11.32 30.15
Ar 27.03 19.01 21.16
Ar 8.94 16.83 23.62
Ar 6.47 21.43 5.33
Ar 10.79 18.69 10.42
Ar 2.73 1.47 1.75
Ar 14.4 27.04 18.02
Ar 18.12 2.22 14.92
Ar 9.71 3.79 6.51
Ar 10.57 22.73 10.4
Ar 27.62 4.43 11.58
Ar 24.81 30.27 26.99
Ar 10.78 8.18 8.47
Ar 15.66 14.67 0.86
Ar 24.05 27.13 17.96
Ar 11.03 26.03 2.7
Ar 20.69 22.48 11.91
Ar 25.09 13.35 29.62
Ar 16.65 4.92 3.76
Ar 19.58 27.11 20.68
Ar 14.7 5.64 8.19
Ar 9.41 29.89 1.51
Ar 26.36 16.57 24.2
Ar 9.01 24.56 7.9
Ar 6.6 6.61 10.59
Ar 13.5 22.83 0.7
Ar 1.14 29.87 20.31
Ar 13.09 6.25 13.61
Ar 11.62 18.87 22.44
Ar 29.51 2.85 4.49
Ar 12.79 23.36 19.27
Ar 11.43 29.15 15.62
Ar 27.23 28.04 7.13
Ar 25.21 8.61 22.16
Ar 4.8 2.55 6.03
Ar 2.92 14.57 28.38
Ar 26.68 3.36 15.79
Ar 23.91 15.57 2.53
Ar 1.54 14.28 25.31
Ar 22.1 23.97 9.7
Ar 3.62 12.36 7.33
Ar 27.57 21.41 23.4
Ar 6.59 26.84 21.18
Ar 8.94 20.2 19.04
Ar 16.09 25.01 20.14
Ar 2.26 5.69 27.22
Ar 28.48 27.92 13.81
Ar 23.42 0.57 16.19
Ar 15.74 27.53 27.23
Ar 29.89 25.81 19.56
Ar 19.5 11.79 3.48
Ar 9.42 12.9 16.37
Ar 21.06 19.36 23.18
Ar 27.21 18.53 0.79
Ar 20.11 0.37 0.28
Ar 27.12 29.51 23.78
Ar 14.1 15.13 7.02
Ar 18.79 30.35 3.05
Ar 11.45 11.46 11.94
Ar 0.4 19.55 23.19
Ar 21.95 7.99 23.02
Ar 18.62 17.69 22.56
Ar 30.95 12.54 30.28
Ar 9.32 29.71 14.58
Ar 8.5 2.59 9.62
Ar 16.43 16.66 4.43
Ar 12.14 20.38 29.45
Ar 20.59 28.2 6.59
Ar 16.6 28.82 14.93
Ar 22.24 12.15 23.8
Ar 22.9 22.91 3.29
Ar 16.75 30.31 25.15
Ar 21.35 6.07 19.85
Ar 26.93 13.66 6.93
Ar 27.33 14 18.46
Ar 1.67 17.36 17.17
Ar 14.58 19.45 27.68
Ar 7.14 24.79 5.94
Ar 26.56 5.53 3.47
Ar 16.32 11 16.76
Ar 14.4 19.8 3.67
Ar 7.42 30.27 8.33
Ar 10.71 4.8 10.33
Ar 15.17 18.66 8.8
Ar 20.2 8.39 25.86
Ar 23.23 3.83 8.16
Ar 24.82 29.52 3.99
Ar 24.94 15.07 13.33
Ar 28.83 0.06 12.63
Ar 19.2 10.61 19.72
Ar 18.32 4.06 30.93
Ar 19.38 8.78 1.26
Ar 21.18 20.9 4.76
Ar 14.18 8.39 22.35
Ar 19.33 6.8 29.03
Ar 4.09 22.65 18.9
Ar 26.62 5.23 23.23
Ar 18.84 27.01 4.43
Ar 30.32 6.84 30.9
Ar 5.74 13.18 29.76
Ar 11.33 12.57 21.14
Ar 15.41 0.54 7.28
Ar 11.97 10.22 13.94
Ar 12.92 10.65 9.01
Ar 16.95 21.14 5.2
Ar 9.52 14.05 10.29
Ar 6.07 29.05 11.92
Ar 28.6 20.64 7.79
Ar 29.39 12.04 13.55
Ar 6.23 5.78 2.6
Ar 0.5 19.71 29.66
Ar 22.1 21.71 15.8
Ar 13.1 5.01 2.61
Ar 12.25 0.88 22.63
Ar 2.15 12.07 23.62
Ar 3.55 27.42 12.47
Ar 5.88 7.38 23.9
Ar 12.65 23.14 21.39
Ar 28.68 17.46 24.82
Ar 28.24 19.18 17.47
Ar 24.11 5.45 4.9
Ar 20.3 25.34 7.06
Ar 4.4 3.52 28.38
Ar 30.96 14.28 16.38
Ar 29.66 22.88 11.33
Ar 1.05 12.96 18.56
Ar 6.22 17.21 24.57
Ar 27.62 7.39 12.25
Ar 0.64 6.95 10.85
Ar 21.98 17.72 25.53
Ar 8.15 2.39 16.76
Ar 28.71 0.58 5.93
Ar 25.11 22.54 15.58
Ar 20.21 5.95 30.75
Ar 10.11 3.73 12.49
Ar 0.75 27.68 1.89
Ar 21.37 24.82 24.5
Ar 3.29 21.43 24.3
Ar 8.21 8.08 16.3
Ar 3.29 9.57 3.67
Ar 2.9 5.18 18.11
Ar 22.26 10.95 25.9
Ar 6.61 20.52 21.12
Ar 13.68 14.14 19.1
Ar 17.83 0.24 29.6
Ar 8.53 19.76 6.86
Ar 23.57 29 16.9
Ar 13.9 23.19 15.47
Ar 1 11.26 16.99
Ar 10.89 16.01 7.53
Ar 5.87 4.45 6.17
Ar 16.17 25.29 13.63
Ar 8.57 4.69 0.32
Ar 0.59 14.47 29.23
Ar 15.08 4.91 22.87
Ar 1.15 25.53 13.65
Ar 12.6 2.74 7.85
Ar 25.82 24.9 27.84
Ar 4.65 21.84 1.6
Ar 5.38 6.86 16.88
Ar 22.14 26.77 24.66
Ar 23.92 24.79 4.09
Ar 9.45 24.59 11.43
Ar 1.1 9.75 27.05
Ar 2.73 11.85 13.7
Ar 26.08 9.35 2.76
Ar 28.19 29.81 26.99
Ar 3.6 4.24 3.11
Ar 8.62 2.96 4.17
Ar 18.25 26.89 14.57
Ar 0.71 20.3 17.83
Ar 21.97 18.62 2.7
Ar 3.02 25.19 22.56
Ar 25.31 4.13 1.35
Ar 6.16 10.4 25.45
Ar 27.47 24.49 18.68
Ar 17.67 11.01 4.61
Ar 13.31 11.87 21.44
Ar 29 27.92 18.16
Ar 9.59 7.12 11.88
Ar 0.92 28.45 23.59
Ar 20.92 17.34 4.2
Ar 12.28 4.68 6.6
Ar 1.99 13.85 10.41
Ar 2.84 28.76 1.02
Ar 0.12 16.27 8.31
Ar 13.01 20.3 0.93
Ar 17.15 17.97 8.16
Ar 13.13 13.88 10.78
Ar 25.22 1.38 18.31
Ar 25.45 5.65 12.2
Ar 9.85 2.69 30.87
Ar 15.7 6.12 25.43
Ar 6.35 1.28 22.9
Ar 8.84 3.47 22.13
Ar 6.83 24.64 28.73
Ar 29.27 15.55 16
Ar 30.21 30.8 29.74
Ar 5.64 24.1 8.22
Ar 28.55 9.62 25.65
Ar 13.03 4.03 29.35
Ar 17.78 16.66 17.3
Ar 22.04 14.37 29.51
Ar 25.07 19.45 21.97
Ar 6.97 15.33 25.55
Ar 9.76 2.51 14.47
Ar 22.92 17.72 22.9
Ar 1.14 25.91 10.63
Ar 18.18 14.36 15.12
Ar 19.87 12.31 30.89
Ar 0.37 21.88 28.97
Ar 28.9 4.47 15.88
Ar 17.22 6.19 13.39
Ar 20.85 6.55 2.16
Ar 26.61 24.53 23.09
Ar 10.83 26.33 30.56
Ar 2.91 23.64 17.07
Ar 12.14 3.73 20.42
Ar 1.76 9.01 1.75
Ar 29.89 6.14 19.18
Ar 30.35 19.37 14.15
Ar 27.18 1 21.04
Ar 5.38 9.35 3.43
Ar 17.14 6.35 1.18
Ar 2.31 4.48 25.09
Ar 28.07 0.71 2.18
Ar 19.74 0.83 28.27
Ar 12.76 9.72 27.93
Ar 9.35 15.98 9.21
Ar 19.76 22.97 26.93
Ar 16.75 23.27 12.09
Ar 18.63 8.52 9.61
Ar 22.73 23.32 26.15
Ar 8.05 0.63 11.09
Ar 28.61 14.42 29.43
Ar 28.86 6.36 28.96
Ar 28.92 1.82 30.11
Ar 9.32 24.1 1.9
Ar 16.21 9.67 2.59
Ar 6.76 9.61 21.05
Ar 2.22 17.57 27.09
Ar 10.27 9.52 16.25
Ar 7.5 6.75 19.51
Ar 8.64 10.37 19.58
Ar 30.25 7.07 3.83
Ar 18.93 22.72 21.45
Ar 30.29 3.24 20.64
Ar 15.05 29.57 6.04
Ar 14.62 7.03 1.82
Ar 14.36 24.27 4.71
Ar 13.17 18.4 5.47
Ar 15.74 9.15 20.9
Ar 3.84 21.31 8.6
Ar 26.74 5.94 19.92
Ar 0.45 0.09 25.08
Ar 11.31 20.69 5.99
Ar 28.4 28.1 1.82
Ar 11.23 11.37 19.26
Ar 2.62 7.43 19.09
Ar 25.98 6.53 14.41
Ar 19.43 22.31 10.24
Ar 5.52 7.61 21.57
Ar 2.87 4.89 29.27
Ar 5.85 1.96 19.81
Ar 0.5 21.39 9.79
Ar 9.69 13.79 26.82
Ar 20.95 17.28 29.6
Ar 14.14 0.08 16.73
Ar 2.09 23.86 30.28
Ar 7.02 17.52 30.45
Ar 27.17 30.27 18.84
Ar 10.52 29.19 21.87
Ar 26.75 12.75 11.66
Ar 29.95 2.26 24.9
Ar 15.97 2.03 18.38
Ar 21.44 9.27 13.77
Ar 17.52 26.95 8.51
Ar 0.35 13.54 23.23
Ar 17.78 13.58 17.79
Ar 2.42 27.56 21.84
Ar 12.98 1.09 4.29
Ar 13.97 28.81 28.68
Ar 22.26 0.78 28.78
Ar 24.12 5.43 14.03
Ar 6.4 28.1 30.84
Ar 30.2 7.7 12.82
Ar 6.16 4.78 17.69
Ar 17.76 4.17 9.83
Ar 22.51 0.71 24.03
Ar 1.24 8.24 6.57
Ar 29.33 5.79 25.91
Ar 27.45 13.72 0.06
Ar 0.67 24.18 20.75
Ar 3.52 25.32 15.69
Ar 29.88 0.47 8.84
Ar 16.93 2.71 3.19
Ar 2.2 21.81 18.06
Ar 15.24 13.76 12.28
Ar 22.33 4.7 25.46
Ar 18.86 21.63 14.24
Ar 3.69 30.2 29.5
Ar 15.4 17.97 6.52
Ar 2.75 21.52 6.45
Ar 22.52 22.29 6.83
Ar 5.97 11.38 14.58
Ar 1.54 28.12 27.22
Ar 30.76 23.17 23.6
Ar 3.04 12.37 5.28
Ar 20.91 5.76 5.73
Ar 21.68 9.28 1.12
Ar 18.49 11.65 8.3
Ar 19.75 14.26 25.84
Ar 15.04 5.48 28
Ar 4.56 18.02 2.22
Ar 28.73 4.5 23.31
Ar 29.31 27.98 24.66
Ar 22.83 18.49 10.4
Ar 8.07 27.9 28.15
Ar 22.81 25.99 8.15
Ar 6.99 17 6.42
Ar 22.59 2.75 19.05
Ar 4.65 17.09 15.35
Ar 29.09 2.9 17.57
Ar 18.49 12.06 10.99
Ar 19.91 9.68 23.32
Ar 14.73 13.19 8.64
Ar 4.96 29.63 25.61
Ar 7.24 22.84 19.15
Ar 4.12 25.58 0.16
Ar 10.86 9.41 5.26
Ar 25.04 7.51 10.96
Ar 1.74 3.07 21.35
Ar 18.2 30.39 8.15
Ar 15.96 27.09 30.81
Ar 7.2 28.75 23.28
Ar 6.11 7.39 14.73
Ar 1.53 12.52 26.73
Ar 25.89 16.55 22.15
Ar 3.63 13.96 14.24
Ar 13.19 30.55 27.31
Ar 9.81 28.61 29.61
Ar 13.09 10.38 5.62
Ar 30.93 25.82 25.23
Ar 10.8 14.68 15.82
Ar 16.97 18.71 24.15
Ar 10.41 0.14 24.65
Ar 22.89 4.94 16.57
Ar 2.37 23.91 3.99
Ar 26.73 20.08 25.63
Ar 20.08 29.26 30.61
Ar 0.52 5.86 8.54
Ar 16.54 24.92 28.48
Ar 10.88 6.52 17.64
Ar 9.44 24.12 30.64
Ar 0.1 20.28 20.57
Ar 25.24 23.35 7.82
Ar 22.74 18.56 15.05
Ar 25.82 21.79 29.52
Ar 30.64 10.78 23.88
Ar 19.93 19.02 18.39
Ar 10.35 11.66 26.73
Ar 27.45 11.95 26.29
Ar 1.44 17.9 5.24
Ar 0.59 12.2 6.77
Ar 18.45 20.63 7.11
Ar 7.11 9.49 14.01
Ar 8.23 24.58 19.79
Ar 2.61 11.67 21.02
Ar 13.18 8.73 0.77
Ar 30.04 11.25 19.89
Ar 22.93 14.85 20.09
Ar 21.27 19.12 7.19
Ar 27.51 20.88 3.43
Ar 21.21 12.42 19.73
Ar 21.76 2.64 24.56
Ar 30.37 8.36 25.63
Ar 21.53 7.51 10.22
Ar 13.78 2.88 1.67
Ar 25.91 24.08 0.85
Ar 30.3 0.84 19.99
Ar 16.39 10.64 13.27
Ar 1.57 9.14 15.93
Ar 9.23 19.96 22.11
Ar 20.48 12.87 12.69
Ar 25.17 0.36 22.08
Ar 26.42 2.92 5.33
Ar 6.67 15.98 15.75
Ar 10.96 6.14 30.7
Ar 29.29 5.99 7.75
Ar 20.68 22.92 0.04
Ar 4.86 9.43 15
Ar 3.14 10.37 29.7
Ar 27.35 15.93 2.24
Ar 24.8 7.73 16.88
Ar 3.6 28.13 3.59
Ar 8.64 27.89 10.7
Ar 14.65 16.04 24.56
Ar 24.29 18.63 25.79
Ar 15.18 20.58 19.69
Ar 11.35 29.07 8.5
Ar 19.89 1.67 4.09
Ar 15.51 28.62 1.74
Ar 16.95 25.78 2.55
Ar 16.78 18.02 30.79
Ar 2.59 19.33 13.91
Ar 17.35 3.51 21.21
Ar 5.27 26.06 25.88
Ar 26.69 17.72 9.02
Ar 23.92 20.75 5.27
Ar 19.94 4.83 9.75
Ar 18.52 20.2 0.41
Ar 24.6 12.6 3.43
Ar 26.06 24.64 16.18
Ar 25.37 24.48 24.81
Ar 21.15 25.89 13.68
Ar 15.93 13.36 29.23
Ar 20.66 21.81 8.25
Ar 5.68 9.33 18.07
Ar 0.88 19.17 1.12
Ar 29.11 30.42 22.66
Ar 19.59 15.81 19.07
Ar 18.38 15.66 0.8
Ar 22.9 11.63 12.7
Ar 6.85 2.09 5.98
Ar 3.1 23.96 1.78
Ar 9.69 8.29 23.35
Ar 8.45 26.08 30.34
Ar 26.44 21.25 0.53
Ar 17.89 19.91 19.44
Ar 8.67 6.96 2.77
Ar 24.32 12.01 6.53
Ar 13.96 22.61 26.42
Ar 3.71 27.93 6.74
Ar 23.01 25.17 6.11
Ar 13.11 8.7 17.32
Ar 12.87 14.54 23.99
Ar 25.03 12.98 9.45
Ar 10.34 20.37 1.48
Ar 26.92 0.64 26.96
Ar 27.83 11.71 8.13
Ar 29.08 5.06 3.21
Ar 11.05 3.55 24.34
Ar 9.32 13.26 12.26
Ar 14.98 22.72 2.49
